[General]
;ini-warnings = true
network = sim
#random-seed = 13
sim-time-limit = 5000s

[Tkenv]
bitmap-path="../../bitmaps"
default-run=1
use-mainwindow = yes
print-banners = no
slowexec-delay = 300ms
update-freq-fast = 10
update-freq-express = 100
breakpoints-enabled = yes

[Cmdenv]
runs-to-execute = 1
event-banners = yes
module-messages = yes

[DisplayStrings]


[Parameters]



##############################################################################
#       Parameters for the entire simulation                                 #
##############################################################################



# uncomment to enable debug messages for all modules
# **.debug = 0
**.coreDebug = 0


##############################################################################
#       Parameters for the ChannelControl                                    #
##############################################################################
sim.channelcontrol.carrierFrequency = 2.4e+9

# max transmission power [mW]
sim.channelcontrol.pMax  = 4
# signal attenuation threshold [dBm]
sim.channelcontrol.sat   = -120
# path loss coefficient alpha
sim.channelcontrol.alpha = 4
sim.channelcontrol.sendDirect = 0
sim.channelcontrol.useTorus = 0


##############################################################################
#       Parameters for the Mobility Module                                   #
##############################################################################

# debug switch
sim.host[*].mobility.debug = 0

# if set to 0 the MN does not move
sim.host[*].mobility.speed          = 0
sim.host[*].mobility.updateInterval = 0.5

##############################################################################
#       Parameters for the Host                                              #
##############################################################################
sim.host[*].color = "white"
sim.host[*].appendDisplay = "b=20,20,oval;o=blue,black,2"
sim.host[*].applLayer="TestApplLayer"

##############################################################################
#       Parameters for the Application Layer                                 #
##############################################################################

# debug switch
sim.host[*].appl.debug = 1
sim.host[*].appl.headerLength=1024
sim.host[*].appl.burstSize=1


##############################################################################
#       Parameters for the Network Layer                                     #
##############################################################################
sim.host[*].net.headerLength=32; in bits
sim.host[*].net.debug = 1

##############################################################################
#	Parameters for the GPSR Network Layer
##############################################################################
sim.host[*].gpsr.headerLength = 1024; in bits
sim.host[*].gpsr.debug = 1

##############################################################################
#       Parameters for ARP
##############################################################################
sim.host[*].arp.debug = 0

##############################################################################
#       Parameters for the Mac Layer                                         #
##############################################################################

# debug switch
sim.host[*].nic.mac.debug = 0
sim.host[*].nic.mac.headerLength=272
sim.host[*].nic.mac.queueLength=14
sim.host[*].nic.mac.bitrate=2E+6; in bits/second
sim.host[*].nic.mac.defaultChannel=0
sim.host[*].nic.mac.autoBitrate=0

### values if no fading is modelled, gives at most 1% packet error rate
sim.host[*].nic.mac.snr2Mbit=1.46   
sim.host[*].nic.mac.snr5Mbit=2.6
sim.host[*].nic.mac.snr11Mbit=5.68

sim.host[*].nic.mac.rtsCtsThreshold=400
sim.host[*].nic.mac.neighborhoodCacheSize=30
sim.host[*].nic.mac.neighborhoodCacheMaxAge=100

##############################################################################
#       Parameters for the radio
##############################################################################

sim.host[*].nic.radio.swSleep = 0
sim.host[*].nic.radio.swSend = 0
sim.host[*].nic.radio.swRecv = 0
sim.host[*].nic.radio.debug = 0

##############################################################################
#       Parameters for the Decider                                           #
##############################################################################

# debug switch
sim.host[*].nic.decider.debug = 0
sim.host[*].nic.decider.snirThreshold=-9; in dB

##############################################################################
#       Parameters for the SnrEval                                           #
##############################################################################

# debug switch
sim.host[*].nic.snrEval.debug = 0
sim.host[*].nic.snrEval.coreDebug = 0
sim.host[*].nic.snrEval.publishRSSIAlways = 0
sim.host[*].nic.snrEval.headerLength=192
sim.host[*].nic.snrEval.transmitterPower=4; [mW]
sim.host[*].nic.snrEval.carrierFrequency=2.4E+9
sim.host[*].nic.snrEval.thermalNoise=-110
sim.host[*].nic.snrEval.sensitivity=-119.5
sim.host[*].nic.snrEval.pathLossAlpha=4

# starting position for the hosts "-1" means random staring point
# starting position for the hosts "-1" means random staring point
#sim.playgroundSizeX = 500
#sim.playgroundSizeY = 500

sim.playgroundSizeX=400
sim.playgroundSizeY=400
sim.numHosts=36
sim.host[0].x=57
sim.host[0].y=70
sim.host[1].x=85
sim.host[1].y=52
sim.host[2].x=143
sim.host[2].y=55
sim.host[3].x=168
sim.host[3].y=14
sim.host[4].x=203
sim.host[4].y=27
sim.host[5].x=250
sim.host[5].y=4
sim.host[6].x=337
sim.host[6].y=73
sim.host[7].x=343
sim.host[7].y=90
sim.host[8].x=29
sim.host[8].y=143
sim.host[9].x=28
sim.host[9].y=186
sim.host[10].x=173
sim.host[10].y=190
sim.host[11].x=123
sim.host[11].y=187
sim.host[12].x=228
sim.host[12].y=106
sim.host[13].x=225
sim.host[13].y=115
sim.host[14].x=312
sim.host[14].y=128
sim.host[15].x=342
sim.host[15].y=139
sim.host[16].x=13
sim.host[16].y=240
sim.host[17].x=37
sim.host[17].y=201
sim.host[18].x=143
sim.host[18].y=272
sim.host[19].x=172
sim.host[19].y=208
sim.host[20].x=243
sim.host[20].y=272
sim.host[21].x=217
sim.host[21].y=204
sim.host[22].x=376
sim.host[22].y=284
sim.host[23].x=387
sim.host[23].y=295
sim.host[24].x=12
sim.host[24].y=305
sim.host[25].x=80
sim.host[25].y=310
sim.host[26].x=187
sim.host[26].y=380
sim.host[27].x=102
sim.host[27].y=363
sim.host[28].x=244
sim.host[28].y=353
sim.host[29].x=235
sim.host[29].y=318
sim.host[30].x=398
sim.host[30].y=392
sim.host[31].x=378
sim.host[31].y=301
sim.host[32].x=200
sim.host[32].y=200
sim.host[*].appl.centerx=200
sim.host[*].appl.centery=200
sim.host[33].x=0
sim.host[33].y=400
sim.host[*].appl.startx=0
sim.host[*].appl.starty=400
sim.host[34].x=400
sim.host[34].y=0
sim.host[*].appl.endx=400
sim.host[*].appl.endy=0
sim.host[35].x=0
sim.host[35].y=0
sim.host[*].appl.queryx=0
sim.host[*].appl.queryy=0
